Version 4
SHEET 1 996 680
WIRE -192 -288 -400 -288
WIRE -400 -224 -400 -288
WIRE 816 -160 816 -240
WIRE 976 -160 816 -160
WIRE -400 -112 -400 -144
WIRE -208 -112 -400 -112
WIRE 816 -96 816 -160
WIRE 976 -96 976 -160
WIRE 816 32 816 -16
WIRE 976 32 976 -32
WIRE 976 32 816 32
WIRE 352 80 304 80
WIRE -160 96 -384 96
WIRE 16 96 -80 96
WIRE 816 96 816 32
WIRE -384 112 -384 96
WIRE 16 144 16 96
WIRE 80 144 16 144
WIRE -384 208 -384 192
WIRE -160 208 -384 208
WIRE 80 208 -160 208
WIRE 352 208 304 208
WIRE -160 256 -160 208
WIRE 352 272 304 272
WIRE 816 320 816 192
FLAG -160 256 signal_gnd
IOPIN -160 256 BiDir
FLAG -208 -112 power_gnd
IOPIN -208 -112 BiDir
FLAG -192 -288 Vcc
IOPIN -192 -288 BiDir
FLAG 352 80 Vcc
IOPIN 352 80 BiDir
FLAG 352 272 power_gnd
IOPIN 352 272 BiDir
FLAG 352 208 opto_out
IOPIN 352 208 Out
FLAG 768 176 opto_out
IOPIN 768 176 In
FLAG 816 320 power_gnd
IOPIN 816 320 In
FLAG 816 -240 Vcc
IOPIN 816 -240 In
SYMBOL Misc\\DIP8 192 176 R0
WINDOW 3 0 -116 Center 2
SYMATTR InstName U1
SYMATTR Value TLP250
SYMBOL voltage -384 96 R0
SYMATTR InstName esp_pin_D2
SYMATTR Value 3.3
SYMBOL res -176 112 R270
WINDOW 0 32 56 VTop 2
WINDOW 3 0 56 VBottom 2
SYMATTR InstName R1
SYMATTR Value 330
SYMBOL voltage -400 -240 R0
SYMATTR InstName wall_adapter
SYMATTR Value 12
SYMBOL nmos 768 96 R0
SYMATTR InstName M1
SYMATTR Value IRFZ44N
SYMBOL voltage 816 0 R180
WINDOW 0 24 96 Left 2
WINDOW 3 24 16 Left 2
SYMATTR InstName toy_motor
SYMBOL diode 992 -32 R180
WINDOW 0 24 64 Left 2
WINDOW 3 24 0 Left 2
SYMATTR InstName 1N4007
